  
       XFOIL         Version 6.99
  
 Calculated polar for: pcop                                            
  
 1 1 Reynolds number fixed          Mach number fixed         
  
 xtrf =   1.000 (top)        1.000 (bottom)  
 Mach =   0.000     Re =     1.000 e 6     Ncrit =   9.000  9.000
  
   alpha    CL        CD       CDp       CM     Top_Xtr  Bot_Xtr  Top_Itr  Bot_Itr
  ------ -------- --------- --------- -------- -------- -------- -------- --------
   7.250   0.8396   0.01212   0.00239  -0.0058   0.0145   1.0000  96.4460 202.0000
   7.500   0.8601   0.01242   0.00254  -0.0044   0.0142   1.0000  96.5083 202.0000
   7.750   0.8806   0.01274   0.00271  -0.0030   0.0140   1.0000  96.5572 202.0000
   8.000   0.9011   0.01308   0.00290  -0.0016   0.0138   1.0000  96.5966 202.0000
   8.250   0.9216   0.01345   0.00311  -0.0002   0.0137   1.0000  96.6284 202.0000
   8.500   0.9421   0.01384   0.00333   0.0012   0.0136   1.0000  96.6542 202.0000
   8.750   0.9627   0.01425   0.00358   0.0026   0.0135   1.0000  96.6745 202.0000
   9.000   0.9832   0.01470   0.00385   0.0039   0.0135   1.0000  96.6911 202.0000
   9.250   1.0036   0.01517   0.00415   0.0052   0.0134   1.0000  96.7042 202.0000
   9.500   1.0242   0.01567   0.00447   0.0065   0.0134   1.0000  96.7142 202.0000
   9.750   1.0448   0.01621   0.00482   0.0076   0.0134   1.0000  96.7217 202.0000
  10.000   1.0653   0.01678   0.00519   0.0088   0.0133   1.0000  96.7269 202.0000
  10.250   1.0855   0.01739   0.00560   0.0099   0.0133   1.0000  96.7300 202.0000
  10.500   1.1053   0.01804   0.00604   0.0111   0.0133   1.0000  96.7314 202.0000
  10.750   1.1246   0.01873   0.00651   0.0123   0.0133   1.0000  96.7313 202.0000
  11.000   1.1432   0.01946   0.00701   0.0135   0.0133   1.0000  96.7297 202.0000
  11.250   1.1610   0.02024   0.00755   0.0149   0.0133   1.0000  96.7267 202.0000
  11.500   1.1778   0.02106   0.00812   0.0163   0.0133   1.0000  96.7224 202.0000
  11.750   1.1935   0.02194   0.00874   0.0178   0.0134   1.0000  96.7168 202.0000
  12.000   1.2079   0.02288   0.00940   0.0194   0.0134   1.0000  96.7101 202.0000
  12.250   1.2199   0.02387   0.01010   0.0213   0.0134   1.0000  96.7023 202.0000
  12.500   1.2283   0.02492   0.01085   0.0237   0.0135   1.0000  96.6938 202.0000
  12.750   1.2355   0.02610   0.01169   0.0260   0.0135   1.0000  96.6842 202.0000
  13.000   1.2417   0.02744   0.01267   0.0281   0.0135   1.0000  96.6733 202.0000
  13.250   1.2465   0.02896   0.01381   0.0299   0.0136   1.0000  96.6612 202.0000
  13.500   1.2500   0.03071   0.01513   0.0315   0.0136   1.0000  96.6479 202.0000
  13.750   1.2519   0.03272   0.01668   0.0327   0.0137   1.0000  96.6331 202.0000
  14.000   1.2523   0.03503   0.01851   0.0335   0.0138   1.0000  96.6170 202.0000
  14.250   1.2511   0.03770   0.02064   0.0339   0.0138   1.0000  96.5996 202.0000
  14.500   1.2480   0.04077   0.02314   0.0337   0.0139   1.0000  96.5809 202.0000
  14.750   1.2429   0.04428   0.02606   0.0331   0.0140   1.0000  96.5612 202.0000
  15.000   1.2357   0.04829   0.02943   0.0318   0.0141   1.0000  96.5404 202.0000
