  
       XFOIL         Version 6.99
  
 Calculated polar for: pcop                                            
  
 1 1 Reynolds number fixed          Mach number fixed         
  
 xtrf =   1.000 (top)        1.000 (bottom)  
 Mach =   0.000     Re =     1.000 e 6     Ncrit =   9.000  9.000
  
   alpha    CL        CD       CDp       CM     Top_Xtr  Bot_Xtr  Top_Itr  Bot_Itr
  ------ -------- --------- --------- -------- -------- -------- -------- --------
  19.250   1.9969   0.15687   0.09441  -0.2331   0.1175   0.4340  79.5147 153.2658
  19.500   2.0033   0.15922   0.09766  -0.2334   0.1121   0.4369  79.8224 153.5529
  19.750   2.0130   0.16109   0.10005  -0.2337   0.1088   0.4402  80.0130 153.8858
  20.000   2.0264   0.16278   0.10205  -0.2343   0.1079   0.4440  80.0634 154.2190
  20.250   2.0379   0.16465   0.10446  -0.2350   0.1069   0.4480  80.1218 154.5469
  20.500   2.0487   0.16649   0.10688  -0.2355   0.1057   0.4521  80.1853 154.8876
  20.750   2.0605   0.16840   0.10942  -0.2363   0.1045   0.4562  80.2531 155.2788
  21.000   2.0703   0.17044   0.11231  -0.2370   0.1033   0.4609  80.3212 155.7532
  21.250   2.0800   0.17249   0.11529  -0.2378   0.1021   0.4660  80.3910 156.2123
  21.500   2.0898   0.17458   0.11837  -0.2386   0.1008   0.4725  80.4648 156.7186
  21.750   2.0980   0.17686   0.12193  -0.2395   0.0995   0.4800  80.5435 157.4111
  22.000   2.1082   0.17920   0.12557  -0.2408   0.0980   0.4920  80.6291 158.5780
  22.250   2.1187   0.18165   0.12943  -0.2424   0.0965   0.5178  80.7137 160.6949
  22.500   2.1287   0.18457   0.13418  -0.2443   0.0951   0.6001  80.7940 167.4278
  22.750   2.1337   0.18671   0.13793  -0.2448   0.0939   0.6777  80.8614 172.1682
  23.000   2.1303   0.18796   0.14071  -0.2431   0.0930   0.7126  80.9137 174.8512
  23.250   2.1283   0.18999   0.14478  -0.2426   0.0921   0.7276  80.9635 176.3248
  23.500   2.1300   0.19186   0.14838  -0.2425   0.0915   0.7377  81.0009 177.3532
  23.750   2.1341   0.19315   0.15070  -0.2420   0.0914   0.7453  81.0058 178.1515
  24.000   2.1330   0.19452   0.15350  -0.2410   0.0913   0.7497  81.0106 178.5127
  24.250   2.1374   0.19614   0.15654  -0.2411   0.0912   0.7564  81.0165 179.0581
  24.500   2.1368   0.19712   0.15861  -0.2397   0.0911   0.7588  81.0226 179.2481
  24.750   2.1380   0.19823   0.16087  -0.2388   0.0910   0.7619  81.0298 179.4929
  25.000   2.1403   0.19996   0.16437  -0.2389   0.0909   0.7664  81.0387 179.8566
  25.250   2.1428   0.20152   0.16756  -0.2388   0.0907   0.7694  81.0490 180.1085
  25.500   2.1446   0.20279   0.17027  -0.2383   0.0906   0.7713  81.0601 180.2837
  25.750   2.1465   0.20420   0.17330  -0.2381   0.0904   0.7741  81.0716 180.5404
  26.000   2.1472   0.20615   0.17756  -0.2384   0.0902   0.7792  81.0831 181.0090
  26.250   2.1489   0.20777   0.18123  -0.2386   0.0900   0.7806  81.0944 181.1224
  26.500   2.1505   0.20958   0.18538  -0.2390   0.0899   0.7822  81.1050 181.2452
  26.750   2.1509   0.21165   0.19024  -0.2397   0.0897   0.7842  81.1150 181.3945
  27.000   2.1533   0.21338   0.19422  -0.2403   0.0896   0.7871  81.1256 181.6145
  27.250   2.1544   0.21521   0.19857  -0.2408   0.0894   0.7906  81.1376 181.8816
  27.500   2.1554   0.21739   0.20384  -0.2419   0.0892   0.7930  81.1517 182.0558
  27.750   2.1598   0.21936   0.20850  -0.2433   0.0889   0.7944  81.1683 182.1481
  28.000   2.1615   0.22163   0.21412  -0.2448   0.0887   0.7959  81.1856 182.2392
  28.250   2.1638   0.22374   0.21942  -0.2462   0.0884   0.7975  81.2016 182.3452
  28.500   2.1652   0.22596   0.22512  -0.2477   0.0882   0.7995  81.2172 182.4701
  28.750   2.1673   0.22799   0.23038  -0.2491   0.0880   0.8018  81.2307 182.6168
  29.000   2.1685   0.23012   0.23603  -0.2506   0.0878   0.8040  81.2425 182.7610
  29.250   2.1710   0.23186   0.24065  -0.2518   0.0876   0.8063  81.2540 182.9051
  29.500   2.1726   0.23375   0.24579  -0.2531   0.0874   0.8082  81.2658 183.0323
  29.750   2.1775   0.23598   0.25169  -0.2554   0.0872   0.8095  81.2823 183.1319
  30.000   2.1818   0.23799   0.25711  -0.2574   0.0869   0.8112  81.3014 183.2739
  30.250   2.1856   0.23980   0.26209  -0.2590   0.0866   0.8137  81.3191 183.4694
  30.500   2.1881   0.24156   0.26707  -0.2605   0.0864   0.8162  81.3322 183.6721
  30.750   2.1896   0.24295   0.27116  -0.2613   0.0862   0.8188  81.3448 183.8812
  31.000   2.1935   0.24474   0.27623  -0.2631   0.0860   0.8214  81.3583 184.0714
  31.250   2.2027   0.24689   0.28195  -0.2662   0.0858   0.8232  81.3730 184.1868
  31.500   2.2110   0.24877   0.28707  -0.2688   0.0856   0.8254  81.3878 184.3298
  31.750   2.2177   0.25048   0.29185  -0.2709   0.0854   0.8278  81.4025 184.4878
  32.000   2.2226   0.25221   0.29691  -0.2729   0.0851   0.8298  81.4175 184.6187
  32.250   2.2270   0.25374   0.30145  -0.2746   0.0849   0.8317  81.4329 184.7411
  32.500   2.2306   0.25511   0.30566  -0.2760   0.0846   0.8332  81.4522 184.8421
  32.750   2.2296   0.25624   0.30953  -0.2764   0.0843   0.8349  81.4744 184.9536
  33.000   2.2393   0.25865   0.31640  -0.2804   0.0837   0.8371  81.5098 185.1029
  33.250   2.2481   0.26091   0.32293  -0.2840   0.0831   0.8393  81.5500 185.2552
  33.500   2.2533   0.26277   0.32863  -0.2866   0.0825   0.8407  81.5900 185.3553
  33.750   2.2564   0.26461   0.33455  -0.2889   0.0819   0.8413  81.6338 185.3978
  34.000   2.2603   0.26623   0.33976  -0.2910   0.0811   0.8418  81.6811 185.4284
  34.250   2.2650   0.26763   0.34428  -0.2929   0.0804   0.8425  81.7290 185.4817
  34.500   2.2699   0.26893   0.34850  -0.2947   0.0798   0.8432  81.7732 185.5270
  34.750   2.2750   0.27012   0.35247  -0.2964   0.0791   0.8435  81.8158 185.5460
  35.000   2.2807   0.27118   0.35601  -0.2981   0.0785   0.8437  81.8607 185.5604
  35.250   2.2864   0.27216   0.35938  -0.2996   0.0778   0.8439  81.9062 185.5743
  35.500   2.2917   0.27314   0.36289  -0.3012   0.0770   0.8441  81.9568 185.5873
  35.750   2.2946   0.27445   0.36779  -0.3031   0.0763   0.8442  82.0032 185.5985
  36.000   2.2979   0.27581   0.37247  -0.3050   0.0762   0.8444  82.0173 185.6096
  36.250   2.2986   0.27755   0.37880  -0.3073   0.0760   0.8445  82.0355 185.6188
  36.500   2.3002   0.27912   0.38452  -0.3095   0.0757   0.8446  82.0581 185.6281
  36.750   2.3013   0.28070   0.39042  -0.3117   0.0754   0.8448  82.0861 185.6370
  37.000   2.3012   0.28245   0.39715  -0.3140   0.0750   0.8449  82.1205 185.6452
  37.250   2.3027   0.28388   0.40265  -0.3161   0.0746   0.8452  82.1602 185.6677
  37.500   2.3046   0.28523   0.40785  -0.3182   0.0741   0.8457  82.2064 185.7043
  37.750   2.3042   0.28688   0.41451  -0.3205   0.0734   0.8461  82.2616 185.7299
  38.000   2.3058   0.28821   0.41980  -0.3226   0.0728   0.8462  82.3214 185.7386
  38.250   2.3090   0.28927   0.42394  -0.3244   0.0721   0.8463  82.3848 185.7454
  38.500   2.3125   0.29023   0.42769  -0.3261   0.0713   0.8464  82.4517 185.7527
  38.750   2.3157   0.29123   0.43165  -0.3279   0.0705   0.8465  82.5223 185.7600
  39.000   2.3178   0.29236   0.43620  -0.3298   0.0696   0.8466  82.6031 185.7671
  39.250   2.3182   0.29371   0.44195  -0.3320   0.0686   0.8467  82.7008 185.7734
  39.500   2.3197   0.29486   0.44680  -0.3340   0.0673   0.8468  82.8178 185.7806
  39.750   2.3241   0.29548   0.44944  -0.3355   0.0658   0.8469  82.9513 185.7895
  40.000   2.3242   0.29677   0.45527  -0.3377   0.0650   0.8470  83.0293 185.7963
